* "spice" description for "capstone", "MPS3640", "spiceText" 


simulator lang=spice

.SUBCKT MPS3640

.ENDS